tests/fuzzer/corpus_json/24_columnar_21_random_031.json
{
  "version": "1.0",
  "type": "input",
  "is_batch": false,
  "attributes": {
    "node": [
      "id",
      "u_rated"
    ],
    "source": [
      "id",
      "node",
      "status",
      "u_ref",
      "u_ref_angle",
      "sk",
      "rx_ratio",
      "z01_ratio"
    ],
    "line": [
      "id",
      "from_node",
      "to_node",
      "from_status",
      "to_status",
      "r1",
      "x1",
      "c1",
      "tan1",
      "r0",
      "x0",
      "c0",
      "tan0",
      "i_n"
    ],
    "shunt": [
      "id",
      "node",
      "status",
      "g1",
      "b1",
      "g0",
      "b0"
    ]
  },
  "data": {
    "node": [
      [
        0,
        110000.0
      ],
      [
        1,
        110000.0
      ]
    ],
    "source": [
      [
        2,
        0,
        1,
        0.9785674723101485,
        0.0,
        112487621.19412775,
        0.3419321367266335,
        1.0
      ],
      [
        3,
        1,
        1,
        1.0,
        0.0,
        112532318.50310135,
        0.1,
        1.0
      ]
    ],
    "line": [
      [
        4,
        0,
        1,
        1,
        1,
        1.1590117853697512,
        3.787962426975058,
        1.474012209602784e-07,
        0.0,
        0.3,
        0.3,
        1e-09,
        0.0,
        743.248646950606
      ]
    ],
    "shunt": [
      [
        5,
        0,
        1,
        5.356617475477887e-05,
        -1.0449814012543278e-05,
        0.0001,
        0.0001
      ]
    ]
  }
}
